LAMMPS (30 Jul 2021)
units lj
atom_style bond

boundary p p p
timestep 0.001

read_data bond.atoms
Reading data file ...
  orthogonal box = (0.0000000 0.0000000 0.0000000) to (30.800000 15.400000 15.400000)
  reading atoms ...
  4000 atoms
  reading velocities ...
  4000 velocities
  scanning bonds ...
  reading bonds ...
  344 bonds
Finding 1-2 1-3 1-4 neighbors ...
     1 = max # of 1-2 neighbors
     0 = max # of 1-3 neighbors
     0 = max # of 1-4 neighbors
     1 = max # of special neighbors

mass 1 1.0
mass 2 1.0

pair_style lj/cut 3.0
pair_coeff 1 1 1.0 1.0 3.0
pair_coeff 1 2 1.0 1.3 1.2
pair_coeff 2 2 1.0 1.0 3.0

bond_style fene
bond_coeff 1 30.0 1.5 1.5 1.0

neighbor 0.3 bin
neigh_modify every 20 delay 0 check no

fix 1 all nvt temp 0.7 0.7 0.1

dump id all atom 100 bond.lammpstrj

thermo 500
run 300000
  update every 20 steps, delay 0 steps, check no
Step Temp E_pair E_mol TotEng Press
0            0    13.428072    2.1782553    15.606327    54.833798
Averages over the last 301 of 601 rows, steps 150000 to 300000:
Temp E_pair E_mol TotEng Press
0.698955 -4.75167 1.85097 -1.85253 -0.0105948
Loop time of 1017.91 on 1 procs for 300000 steps with 4000 atoms
